*Heading
** Job name: Job-L001-T000 Model name: Model-L001-T000
** Generated by: Abaqus/CAE 2020
*Preprint, echo=NO, model=NO, history=NO, contact=NO
**
** PARTS
**
*Part, name=Part-Layer+Solid
*Node
      1,   1.89999998,          -5., 0.0299999993
      2,   1.89999998,          -5., 0.0599999987
      3,          -5.,          -5., 0.0599999987
      4,          -5.,          -5., 0.0299999993
      5,   1.89999998,         -2.5, 0.0599999987
      6,          -5.,         -2.5, 0.0599999987
      7,          -5.,         -2.5, 0.0299999993
      8,   1.89999998,         -2.5, 0.0299999993
      9,         -2.5,         -2.5, 0.0299999993
     10,   2.29999995,          -5., 0.0599999987
     11,   2.29999995,          -5., 0.0299999993
     12,   2.70000005,          -5., 0.0299999993
     13,   2.70000005,          -5., 0.0599999987
     14,   2.29999995,         -2.5, 0.0299999993
     15,          2.5,         -2.5, 0.0299999993
     16,   2.70000005,         -2.5, 0.0299999993
     17,   2.70000005,         -2.5, 0.0599999987
     18,   2.29999995,         -2.5, 0.0599999987
     19,    3.0999999,          -5., 0.0299999993
     20,    3.0999999,          -5., 0.0599999987
** ... 4200 like lines cut
*Element, type=DC3D8
 1,  105, 1059, 3339, 1005,    1,   61,  987,   80
 2, 1059,  109, 1032, 3339,   61,    2,   62,  987
 3, 1005, 3339, 3340, 1006,   80,  987,  988,   79
 4, 3339, 1032, 1033, 3340,  987,   62,   63,  988
 5, 1006, 3340, 3341, 1007,   79,  988,  989,   78
 6, 3340, 1033, 1034, 3341,  988,   63,   64,  989
 7, 1007, 3341, 3342, 1008,   78,  989,  990,   77
 8, 3341, 1034, 1035, 3342,  989,   64,   65,  990
 9, 1008, 3342, 3343, 1009,   77,  990,  991,   76
10, 3342, 1035, 1036, 3343,  990,   65,   66,  991
11, 1009, 3343, 3344, 1010,   76,  991,  992,   75
12, 3343, 1036, 1037, 3344,  991,   66,   67,  992
13, 1010, 3344, 3345, 1011,   75,  992,  993,   74
14, 3344, 1037, 1038, 3345,  992,   67,   68,  993
15, 1011, 3345, 3346, 1012,   74,  993,  994,   73
16, 3345, 1038, 1039, 3346,  993,   68,   69,  994
17, 1012, 3346, 3347, 1013,   73,  994,  995,   72
18, 3346, 1039, 1040, 3347,  994,   69,   70,  995
19, 1013, 3347, 1062,  100,   72,  995,   71,    4
20, 3347, 1040,  108, 1062,  995,   70,    3,   71
** ... 2764 like lines cut
*Nset, nset=Set-Part-Layer+Solid, generate
    1,  4220,     1
*Elset, elset=Set-Part-Layer+Solid, generate
    1,  2784,     1
*Nset, nset=Set-LS-Yax-TopBot
   1,   2,   3,   4,   5,   6,   7,   8,  10,  11,  12,  13,  14,  16,  17,  18
  19,  20,  21,  22,  23,  24,  25,  26,  27,  28,  30,  31,  32,  34,  35,  36
  37,  38,  39,  40,  41,  42,  43,  44,  45,  46,  47,  48,  49,  50,  51,  52
 100, 101, 102, 103, 104, 105, 106, 107, 108, 109, 110, 111, 135, 136, 137, 138
 139, 140, 141, 142, 143, 144, 145, 146, 157, 158, 159, 160, 161, 162, 177, 178
 179, 180, 181, 182, 747, 748, 749, 750, 751, 752, 753, 754, 755, 756, 757, 758
 770, 771, 772, 773, 774, 775, 784, 785, 786, 787, 788, 789, 790, 791, 792, 793
 794, 795, 819, 820, 821, 822, 823, 824
*Elset, elset=Set-LS-Yax-TopBot
    1,    2,   19,   20,   21,   22,   39,   40,   41,   42,   59,   60,   61,   62,   79,   80
   81,   82,   91,   92,   93,   94,  103,  104,  105,  106,  115,  116,  117,  118,  127,  128
  129,  130,  133,  134,  135,  136,  139,  140,  141,  142,  145,  146,  147,  148,  151,  152
  153,  154,  159,  160,  161,  162,  167,  168,  169,  170,  175,  176,  177,  178,  183,  184
 1887, 1889, 1890, 1892, 1893, 1895, 1896, 1898, 1899, 1901, 1902, 1904, 1905, 1907, 1908, 1910
 2133, 2134, 2137, 2138, 2139, 2140, 2143, 2144, 2145, 2146, 2149, 2150, 2151, 2152, 2155, 2156
 2157, 2158, 2167, 2168, 2169, 2170, 2179, 2180, 2181, 2182, 2191, 2192, 2193, 2194, 2203, 2204
 2205, 2206, 2211, 2212, 2213, 2214, 2219, 2220, 2221, 2222, 2227, 2228, 2229, 2230, 2235, 2236
 2237, 2238, 2241, 2242, 2243, 2244, 2247, 2248, 2249, 2250, 2253, 2254, 2255, 2256, 2259, 2260
 2261, 2262, 2279, 2280, 2281, 2282, 2299, 2300, 2301, 2302, 2319, 2320, 2321, 2322, 2339, 2340
*Nset, nset=Set-LS-Yax-Middle
   5,   6,   7,   8,   9,  14,  15,  16,  17,  18,  21,  22,  25,  26,  27,  28
  29,  30,  31,  32,  33,  34,  35,  36,  37,  38,  39,  40,  53,  54,  55,  56
  57,  58,  59,  60, 202, 203, 204, 205, 206, 207, 208, 209, 210, 211, 212, 213
 214, 215, 216, 217, 218, 219, 220, 221, 222, 223, 224, 225, 226, 227, 228, 229
 230, 231, 232, 233, 234, 235, 236, 237, 238, 239, 240, 241, 242, 243, 244, 245
 246, 247, 248, 249, 250, 251, 252, 253, 254, 255, 256, 257, 258, 259, 260, 261
 262, 263, 264, 265, 266, 267, 268, 269, 270, 271, 272, 273, 274, 275, 276, 277
 278, 279, 280, 281, 282, 283, 284, 285, 286, 287, 288, 289, 290, 291, 292, 293
 294, 295, 296, 297, 298, 299, 300, 301, 302, 303, 304, 305, 306, 307, 308, 309
 310, 311, 312, 313, 314, 315, 316, 317, 318, 319, 320, 321, 322, 323, 324, 325
 326, 327, 328, 329, 330, 331, 332, 333, 334, 335, 336, 337, 338, 339, 340, 341
 342, 343, 344, 345, 346, 347, 348, 349, 350, 351, 352, 353, 354, 355, 356, 357
 358, 359, 360, 361, 362, 363, 364, 365, 366, 367, 368, 369, 370, 371, 372, 373
 374, 375, 376, 377, 378, 379, 380, 381, 393, 394, 395, 396, 397, 398, 399, 400
 401, 402, 403, 404, 405, 406, 407, 408, 409, 410, 411, 412, 413, 414, 415, 416
 417, 418, 419, 420, 421, 422, 423, 424, 425, 426, 427, 428, 429, 430, 431, 432
 433, 434, 435, 436, 437, 438, 439, 440, 441, 442, 443, 444, 445, 446, 447, 448
 449, 450, 451, 452, 453, 454, 455, 456, 457, 458, 459, 460, 461, 462, 463, 464
 465, 466, 467, 468, 469, 470, 471, 472, 473, 474, 475, 476, 477, 478, 479, 480
 481, 482, 483, 484, 485, 486, 487, 488, 489, 490, 491, 492, 493, 494, 495, 496
** ... 23 like lines cut
*Elset, elset=Set-LS-Yax-Middle
  185,  186,  196,  198,  203,  204,  205,  206,  216,  218,  223,  224,  225,  226,  236,  238
  243,  244,  245,  246,  256,  258,  263,  264,  265,  266,  276,  278,  283,  284,  285,  286
  296,  298,  303,  304,  305,  306,  316,  318,  323,  324,  325,  326,  336,  338,  343,  344
  345,  346,  356,  358,  363,  364,  365,  366,  376,  378,  383,  384,  385,  386,  396,  398
  403,  404,  405,  406,  416,  418,  423,  424,  425,  426,  436,  438,  443,  444,  445,  446
  456,  458,  463,  464,  465,  466,  476,  478,  483,  484,  485,  486,  496,  498,  503,  504
  505,  506,  516,  518,  523,  524,  525,  526,  536,  538,  543,  544,  545,  546,  556,  558
  563,  564,  565,  566,  576,  578,  583,  584,  585,  586,  596,  598,  603,  604,  605,  606
  616,  618,  623,  624,  625,  626,  636,  638,  643,  644,  645,  646,  656,  658,  663,  664
  665,  666,  676,  678,  683,  684,  685,  686,  696,  698,  703,  704,  705,  706,  716,  718
  723,  724,  725,  726,  736,  738,  743,  744,  745,  746,  756,  758,  763,  764,  765,  766
  776,  778,  783,  784,  785,  786,  796,  798,  803,  804,  805,  806,  816,  818,  823,  824
  825,  826,  836,  838,  843,  844,  845,  846,  856,  858,  863,  864,  865,  866,  876,  878
  883,  884,  885,  886,  896,  898,  903,  904,  905,  906,  916,  918,  923,  924,  925,  927
  928,  930,  931,  936,  937,  939,  940,  942,  943,  948,  949,  951,  952,  954,  955,  960
  961,  963,  964,  966,  967,  972,  973,  975,  976,  978,  979,  984,  985,  987,  988,  990
  991,  996,  997,  999, 1000, 1002, 1003, 1008, 1009, 1011, 1012, 1014, 1015, 1020, 1021, 1023
 1024, 1026, 1027, 1032, 1033, 1035, 1036, 1038, 1039, 1044, 1045, 1047, 1048, 1050, 1051, 1056
 1057, 1059, 1060, 1062, 1063, 1068, 1069, 1071, 1072, 1074, 1075, 1080, 1081, 1083, 1084, 1086
 1087, 1092, 1093, 1095, 1096, 1098, 1099, 1104, 1105, 1107, 1108, 1110, 1111, 1116, 1117, 1119
** ... 50 like lines cut
*Nset, nset=Set-LS-Xax-FarfromFocus_1
   5,   6,   7,   9,  27,  29,  30,  31,  41,  42,  51,  52,  82,  83,  84,  85
  86,  87,  88,  89,  90,  97,  98,  99, 189, 190, 191, 193, 194, 195, 196, 197
 198, 199, 200, 201, 800, 801, 802, 803, 804, 805, 806, 807, 808, 810, 811, 812
 813, 814, 815, 816, 817, 818
*Elset, elset=Set-LS-Xax-FarfromFocus_1
   62,   64,   66,   68,   70,   72,   73,   74,   75,   76,   77,   78,   79,   80,  185,  187
  189,  191,  193,  195,  197,  198,  199,  200,  201,  202,  203,  204,  905,  907,  909,  911
  913,  915,  917,  918,  919,  920,  921,  922,  923,  924, 2261, 2263, 2265, 2267, 2269, 2271
 2273, 2274, 2275, 2276, 2277, 2278, 2279, 2280, 2321, 2322, 2323, 2324, 2325, 2326, 2327, 2328
 2329, 2330, 2331, 2332, 2333, 2334, 2335, 2336, 2337, 2338, 2339, 2340
*Nset, nset=Set-LS-Xax-FarfromFocus_2
  19,  20,  21,  22,  23,  24,  25,  26,  37,  38,  39,  40,  47,  48,  49,  50
 163, 164, 165, 167, 168, 169, 170, 171, 172, 174, 175, 176, 650, 651, 652, 654
 655, 656, 777, 778, 779, 781, 782, 783
*Elset, elset=Set-LS-Xax-FarfromFocus_2
  153,  154,  155,  156,  157,  158,  159,  160,  177,  178,  179,  180,  181,  182,  183,  184
 1591, 1592, 1593, 1594, 1595, 1596, 1597, 1598, 1879, 1880, 1881, 1882, 1883, 1884, 1885, 1886
 2205, 2206, 2207, 2208, 2209, 2210, 2211, 2212, 2229, 2230, 2231, 2232, 2233, 2234, 2235, 2236
*Nset, nset=Set-LS-Xax-InFocus
  10,  11,  12,  13,  14,  15,  16,  17,  18,  32,  33,  34,  35,  36,  43,  44
  45,  46,  53,  55,  59,  60, 113, 114, 115, 116, 117, 119, 120, 121, 122, 123
 125, 126, 127, 128, 130, 131, 132, 133, 134, 382, 383, 384, 385, 387, 388, 389
 390, 391, 759, 760, 761, 762, 763, 765, 766, 767, 768, 769, 983, 984, 985, 986
*Elset, elset=Set-LS-Xax-InFocus
   81,   82,   83,   84,   85,   86,   87,   88,   89,   90,   91,   92,  117,  118,  119,  120
  121,  122,  123,  124,  125,  126,  127,  128,  925,  926,  927,  928,  929,  930,  931,  932
  933,  934,  935,  936, 1357, 1358, 1359, 1360, 1361, 1362, 1363, 1364, 1365, 1366, 1367, 1368
 2157, 2158, 2159, 2160, 2161, 2162, 2163, 2164, 2165, 2166, 2167, 2168, 2193, 2194, 2195, 2196
 2197, 2198, 2199, 2200, 2201, 2202, 2203, 2204, 2674, 2710, 2711, 2747, 2748, 2784
*Nset, nset=Set-LS-Xax-NearFocus
   1,   2,   5,   8,  10,  11,  12,  13,  14,  16,  17,  18,  19,  20,  21,  22
  27,  28,  32,  34,  35,  36,  37,  38,  41,  42,  43,  44,  45,  46,  47,  48
  53,  54,  55,  56, 148, 149, 150, 151, 153, 154, 155, 156, 574, 575, 576, 577
 729, 730, 731, 732, 733, 734, 735, 736, 737, 738, 739, 740, 742, 743, 745, 746
 796, 797, 798, 799, 825, 826, 827, 828
*Elset, elset=Set-LS-Xax-NearFocus
  129,  130,  131,  132,  133,  134,  147,  148,  149,  150,  151,  152, 1369, 1370, 1371, 1372
 1373, 1374, 1585, 1586, 1587, 1588, 1589, 1590, 1887, 1888, 1889, 1896, 1897, 1898, 1899, 1900
 1901, 1908, 1909, 1910, 1911, 1912, 1913, 1914, 1915, 1916, 2127, 2128, 2129, 2130, 2131, 2132
 2133, 2134, 2135, 2136, 2137, 2138, 2151, 2152, 2153, 2154, 2155, 2156, 2237, 2238, 2239, 2240
 2241, 2242, 2255, 2256, 2257, 2258, 2259, 2260, 2341, 2342, 2343, 2449, 2450, 2451
*Nset, nset=Set-LS-Xax-InScan_1
   1,   2,   3,   4,   8,   9,  28,  29,  54,  56,  57,  58,  62,  63,  64,  65
  66,  67,  68,  69,  70,  72,  73,  74,  75,  76,  77,  78,  79,  80,  92,  93
  94,  95,  96, 184, 185, 186, 187, 188, 901, 902, 903, 904, 905, 906, 907, 908
 909, 910
*Elset, elset=Set-LS-Xax-InScan_1
    1,    2,    3,    4,    5,    6,    7,    8,    9,   10,   11,   12,   13,   14,   15,   16
   17,   18,   19,   20,   61,   63,   65,   67,   69,   71,  186,  188,  190,  192,  194,  196
  906,  908,  910,  912,  914,  916, 2262, 2264, 2266, 2268, 2270, 2272, 2452, 2453, 2454, 2455
 2456, 2457, 2668, 2669, 2670, 2671, 2672, 2673
*Nset, nset=Set-LS-Zax
  9, 15, 29, 33, 57, 58, 59, 60
*Elset, elset=Set-LS-Zax
 2457, 2673, 2748, 2784
** Section: Section-S
*Solid Section, elset=Set-Part-Layer+Solid, material=SS316L-Solid-AsBuilt
,
*End Part
**  
*Part, name=Part-Powder
*Node
      1,          2.5,         -2.5,           0.
      2,         -2.5,         -2.5,           0.
      3,          2.5,          2.5,           0.
      4,         -2.5,          2.5,           0.
      5,           5.,          -5.,           0.
      6,          -5.,          -5.,           0.
      7,          -5.,           5.,           0.
      8,           5.,           5.,           0.
      9,        1.875,         -2.5,           0.
     10,         1.25,         -2.5,           0.
     11,        0.625,         -2.5,           0.
     12,           0.,         -2.5,           0.
     13,       -0.625,         -2.5,           0.
     14,        -1.25,         -2.5,           0.
     15,       -1.875,         -2.5,           0.
     16,          2.5,        1.875,           0.
     17,          2.5,         1.25,           0.
     18,          2.5,        0.625,           0.
     19,          2.5,           0.,           0.
     20,          2.5,       -0.625,           0.
** ... 604 like lines cut
*Element, type=DC3D8
  1, 149,  58,  57, 131, 461, 370, 369, 443
  2,  61, 153, 154,  62, 373, 465, 466, 374
  3, 162,  74,  73, 125, 474, 386, 385, 437
  4,  77, 166, 167,  78, 389, 478, 479, 390
  5, 175,  90,  89, 119, 487, 402, 401, 431
  6, 136,  42,  41, 113, 448, 354, 353, 425
  7,  45, 140, 141,  46, 357, 452, 453, 358
  8,  94, 180, 109,  95, 406, 492, 421, 407
  9, 218, 189, 255, 285, 530, 501, 567, 597
 10,  95, 109, 110,  96, 407, 421, 422, 408
 11,  38, 111, 112,  39, 350, 423, 424, 351
 12,  39, 112, 106,  40, 351, 424, 418, 352
 13,  40, 106, 113,  41, 352, 418, 425, 353
 14, 219, 247, 301, 227, 531, 559, 613, 539
 15, 117,  86,  85, 116, 429, 398, 397, 428
 16, 118,  87,  86, 117, 430, 399, 398, 429
 17,  87, 118, 105,  88, 399, 430, 417, 400
 18,  88, 105, 119,  89, 400, 417, 431, 401
 19, 222, 253, 226, 230, 534, 565, 538, 542
 20, 180,  94,  93, 179, 492, 406, 405, 491
** ... 242 like lines cut
*Nset, nset=Set-Part-Powder, generate
   1,  624,    1
*Elset, elset=Set-Part-Powder, generate
   1,  262,    1
** Section: Section-P
*Solid Section, elset=Set-Part-Powder, material=SS316L-Powder
,
*End Part
**  
*Part, name=Part-Sub
*Node
      1,           5.,           5.,           2.
      2,           5.,           4.,           2.
      3,           5.,           3.,           2.
      4,           5.,           2.,           2.
      5,           5.,           1.,           2.
      6,           5.,           0.,           2.
      7,           5.,          -1.,           2.
      8,           5.,          -2.,           2.
      9,           5.,          -3.,           2.
     10,           5.,          -4.,           2.
     11,           5.,          -5.,           2.
     12,           5.,           5.,           1.
     13,           5.,           4.,           1.
     14,           5.,           3.,           1.
     15,           5.,           2.,           1.
     16,           5.,           1.,           1.
     17,           5.,           0.,           1.
     18,           5.,          -1.,           1.
     19,           5.,          -2.,           1.
     20,           5.,          -3.,           1.
** ... 343 like lines cut
*Element, type=DC3D8
  1,  34,  35,  46,  45,   1,   2,  13,  12
  2,  35,  36,  47,  46,   2,   3,  14,  13
  3,  36,  37,  48,  47,   3,   4,  15,  14
  4,  37,  38,  49,  48,   4,   5,  16,  15
  5,  38,  39,  50,  49,   5,   6,  17,  16
  6,  39,  40,  51,  50,   6,   7,  18,  17
  7,  40,  41,  52,  51,   7,   8,  19,  18
  8,  41,  42,  53,  52,   8,   9,  20,  19
  9,  42,  43,  54,  53,   9,  10,  21,  20
 10,  43,  44,  55,  54,  10,  11,  22,  21
 11,  45,  46,  57,  56,  12,  13,  24,  23
 12,  46,  47,  58,  57,  13,  14,  25,  24
 13,  47,  48,  59,  58,  14,  15,  26,  25
 14,  48,  49,  60,  59,  15,  16,  27,  26
 15,  49,  50,  61,  60,  16,  17,  28,  27
 16,  50,  51,  62,  61,  17,  18,  29,  28
 17,  51,  52,  63,  62,  18,  19,  30,  29
 18,  52,  53,  64,  63,  19,  20,  31,  30
 19,  53,  54,  65,  64,  20,  21,  32,  31
 20,  54,  55,  66,  65,  21,  22,  33,  32
** ... 180 like lines cut
*Nset, nset=Set-Part-Sub, generate
   1,  363,    1
*Elset, elset=Set-Part-Sub, generate
   1,  200,    1
** Section: Section-S
*Solid Section, elset=Set-Part-Sub, material=SS316L-Solid-AsBuilt
,
*End Part
**  
**
** ASSEMBLY
**
*Assembly, name=Assembly
**  
*Instance, name=Part-Layer+Solid, part=Part-Layer+Solid
          0.,           0.,           2.
          0.,           0.,           2.,           0.,           0., 3.00000001268805, 89.9999992730282
*End Instance
**  
*Instance, name=Part-Powder, part=Part-Powder
          0.,           0.,           2.
          0.,           0.,           2.,           0.,           0., 3.00000001268805, 89.9999992730282
*End Instance
**  
*Instance, name=Part-Sub, part=Part-Sub
*End Instance
**  
*Nset, nset=Part-Sub-face-Bottom, instance=Part-Sub
  23,  24,  25,  26,  27,  28,  29,  30,  31,  32,  33,  56,  57,  58,  59,  60
  61,  62,  63,  64,  65,  66,  89,  90,  91,  92,  93,  94,  95,  96,  97,  98
  99, 122, 123, 124, 125, 126, 127, 128, 129, 130, 131, 132, 155, 156, 157, 158
 159, 160, 161, 162, 163, 164, 165, 188, 189, 190, 191, 192, 193, 194, 195, 196
 197, 198, 221, 222, 223, 224, 225, 226, 227, 228, 229, 230, 231, 254, 255, 256
 257, 258, 259, 260, 261, 262, 263, 264, 287, 288, 289, 290, 291, 292, 293, 294
 295, 296, 297, 320, 321, 322, 323, 324, 325, 326, 327, 328, 329, 330, 353, 354
 355, 356, 357, 358, 359, 360, 361, 362, 363
*Elset, elset=Part-Sub-face-Bottom, instance=Part-Sub
  11,  12,  13,  14,  15,  16,  17,  18,  19,  20,  31,  32,  33,  34,  35,  36
  37,  38,  39,  40,  51,  52,  53,  54,  55,  56,  57,  58,  59,  60,  71,  72
  73,  74,  75,  76,  77,  78,  79,  80,  91,  92,  93,  94,  95,  96,  97,  98
  99, 100, 111, 112, 113, 114, 115, 116, 117, 118, 119, 120, 131, 132, 133, 134
 135, 136, 137, 138, 139, 140, 151, 152, 153, 154, 155, 156, 157, 158, 159, 160
 171, 172, 173, 174, 175, 176, 177, 178, 179, 180, 191, 192, 193, 194, 195, 196
 197, 198, 199, 200
*Nset, nset=Set-All, instance=Part-Layer+Solid, generate
    1,  4220,     1
*Nset, nset=Set-All, instance=Part-Powder, generate
   1,  624,    1
*Nset, nset=Set-All, instance=Part-Sub, generate
   1,  363,    1
*Elset, elset=Set-All, instance=Part-Layer+Solid, generate
    1,  2784,     1
*Elset, elset=Set-All, instance=Part-Powder, generate
   1,  262,    1
*Elset, elset=Set-All, instance=Part-Sub, generate
   1,  200,    1
*Elset, elset=_Part-Layer+Solid-face-Bottom_S4, internal, instance=Part-Layer+Solid, generate
 2341,  2673,     1
*Elset, elset=_Part-Layer+Solid-face-Bottom_S5, internal, instance=Part-Layer+Solid, generate
 2674,  2784,     1
*Surface, type=ELEMENT, name=Part-Layer+Solid-face-Bottom
_Part-Layer+Solid-face-Bottom_S4, S4
_Part-Layer+Solid-face-Bottom_S5, S5
*Elset, elset=_Part-Layer+Solid-face-Side1_S4, internal, instance=Part-Layer+Solid, generate
 2710,  2784,    37
*Elset, elset=_Part-Layer+Solid-face-Side1_S1, internal, instance=Part-Layer+Solid
 2449, 2450, 2451, 2668, 2669, 2670, 2671, 2672, 2673, 2748, 2749, 2750, 2751, 2752, 2753, 2754
 2755, 2756, 2757, 2758, 2759, 2760, 2761, 2762, 2763, 2764, 2765, 2766, 2767, 2768, 2769, 2770
 2771, 2772, 2773, 2774, 2775, 2776, 2777, 2778, 2779, 2780, 2781, 2782, 2783, 2784
*Elset, elset=_Part-Layer+Solid-face-Side1_S2, internal, instance=Part-Layer+Solid
 2341, 2342, 2343, 2452, 2453, 2454, 2455, 2456, 2457
*Elset, elset=_Part-Layer+Solid-face-Side1_S6, internal, instance=Part-Layer+Solid, generate
 2674,  2748,    37
*Elset, elset=_Part-Layer+Solid-face-Side1_S5, internal, instance=Part-Layer+Solid, generate
 2457,  2673,     6
*Surface, type=ELEMENT, name=Part-Layer+Solid-face-Side1
_Part-Layer+Solid-face-Side1_S4, S4
_Part-Layer+Solid-face-Side1_S1, S1
_Part-Layer+Solid-face-Side1_S2, S2
_Part-Layer+Solid-face-Side1_S6, S6
_Part-Layer+Solid-face-Side1_S5, S5
*Elset, elset=_Part-Layer+Solid-face-Top_S6, internal, instance=Part-Layer+Solid
   81,   83,   85,   87,   89,   91,   93,   95,   97,   99,  101,  103,  105,  107,  109,  111
  113,  115,  117,  119,  121,  123,  125,  127,  153,  155,  157,  159,  161,  163,  165,  167
  169,  171,  173,  175,  177,  179,  181,  183,  185,  187,  189,  191,  193,  195,  197,  199
  201,  203,  205,  207,  209,  211,  213,  215,  217,  219,  221,  223,  225,  227,  229,  231
  233,  235,  237,  239,  241,  243,  245,  247,  249,  251,  253,  255,  257,  259,  261,  263
  265,  267,  269,  271,  273,  275,  277,  279,  281,  283,  285,  287,  289,  291,  293,  295
  297,  299,  301,  303,  305,  307,  309,  311,  313,  315,  317,  319,  321,  323,  325,  327
  329,  331,  333,  335,  337,  339,  341,  343,  345,  347,  349,  351,  353,  355,  357,  359
  361,  363,  365,  367,  369,  371,  373,  375,  377,  379,  381,  383,  385,  387,  389,  391
  393,  395,  397,  399,  401,  403,  405,  407,  409,  411,  413,  415,  417,  419,  421,  423
  425,  427,  429,  431,  433,  435,  437,  439,  441,  443,  445,  447,  449,  451,  453,  455
  457,  459,  461,  463,  465,  467,  469,  471,  473,  475,  477,  479,  481,  483,  485,  487
  489,  491,  493,  495,  497,  499,  501,  503,  505,  507,  509,  511,  513,  515,  517,  519
  521,  523,  525,  527,  529,  531,  533,  535,  537,  539,  541,  543,  545,  547,  549,  551
  553,  555,  557,  559,  561,  563,  565,  567,  569,  571,  573,  575,  577,  579,  581,  583
  585,  587,  589,  591,  593,  595,  597,  599,  601,  603,  605,  607,  609,  611,  613,  615
  617,  619,  621,  623,  625,  627,  629,  631,  633,  635,  637,  639,  641,  643,  645,  647
  649,  651,  653,  655,  657,  659,  661,  663,  665,  667,  669,  671,  673,  675,  677,  679
  681,  683,  685,  687,  689,  691,  693,  695,  697,  699,  701,  703,  705,  707,  709,  711
  713,  715,  717,  719,  721,  723,  725,  727,  729,  731,  733,  735,  737,  739,  741,  743
** ... 23 like lines cut
*Elset, elset=_Part-Layer+Solid-face-Top_S4, internal, instance=Part-Layer+Solid
    2,    4,    6,    8,   10,   12,   14,   16,   18,   20,   22,   24,   26,   28,   30,   32
   34,   36,   38,   40,   42,   44,   46,   48,   50,   52,   54,   56,   58,   60,   62,   64
   66,   68,   70,   72,   74,   76,   78,   80,  130,  132,  134,  136,  138,  140,  142,  144
  146,  148,  150,  152, 1592, 1594, 1596, 1598, 1600, 1602, 1604, 1606, 1608, 1610, 1612, 1614
 1616, 1618, 1620, 1622, 1624, 1626, 1628, 1630, 1632, 1634, 1636, 1638, 1640, 1642, 1644, 1646
 1648, 1650, 1652, 1654, 1656, 1658, 1660, 1662, 1664, 1666, 1668, 1670, 1672, 1674, 1676, 1678
 1680, 1682, 1684, 1686, 1688, 1690, 1692, 1694, 1696, 1698, 1700, 1702, 1704, 1706, 1708, 1710
 1712, 1714, 1716, 1718, 1720, 1722, 1724, 1726, 1728, 1730, 1732, 1734, 1736, 1738, 1740, 1742
 1744, 1746, 1748, 1750, 1752, 1754, 1756, 1758, 1760, 1762, 1764, 1766, 1768, 1770, 1772, 1774
 1776, 1778, 1780, 1782, 1784, 1786, 1788, 1790, 1792, 1794, 1796, 1798, 1800, 1802, 1804, 1806
 1808, 1810, 1812, 1814, 1816, 1818, 1820, 1822, 1824, 1826, 1828, 1830, 1832, 1834, 1836, 1838
 1840, 1842, 1844, 1846, 1848, 1850, 1852, 1854, 1856, 1858, 1860, 1862, 1864, 1866, 1868, 1870
 1872, 1874, 1876, 1878, 1880, 1882, 1884, 1886, 2134, 2136, 2138, 2140, 2142, 2144, 2146, 2148
 2150, 2152, 2154, 2156, 2158, 2160, 2162, 2164, 2166, 2168, 2170, 2172, 2174, 2176, 2178, 2180
 2182, 2184, 2186, 2188, 2190, 2192, 2194, 2196, 2198, 2200, 2202, 2204, 2206, 2208, 2210, 2212
 2214, 2216, 2218, 2220, 2222, 2224, 2226, 2228, 2230, 2232, 2234, 2236
*Elset, elset=_Part-Layer+Solid-face-Top_S1, internal, instance=Part-Layer+Solid, generate
 1899,  1910,     1
*Elset, elset=_Part-Layer+Solid-face-Top_S5, internal, instance=Part-Layer+Solid
  931,  932,  933,  934,  935,  936,  943,  944,  945,  946,  947,  948,  955,  956,  957,  958
  959,  960,  967,  968,  969,  970,  971,  972,  979,  980,  981,  982,  983,  984,  991,  992
  993,  994,  995,  996, 1003, 1004, 1005, 1006, 1007, 1008, 1015, 1016, 1017, 1018, 1019, 1020
 1027, 1028, 1029, 1030, 1031, 1032, 1039, 1040, 1041, 1042, 1043, 1044, 1051, 1052, 1053, 1054
 1055, 1056, 1063, 1064, 1065, 1066, 1067, 1068, 1075, 1076, 1077, 1078, 1079, 1080, 1087, 1088
 1089, 1090, 1091, 1092, 1099, 1100, 1101, 1102, 1103, 1104, 1111, 1112, 1113, 1114, 1115, 1116
 1123, 1124, 1125, 1126, 1127, 1128, 1135, 1136, 1137, 1138, 1139, 1140, 1147, 1148, 1149, 1150
 1151, 1152, 1159, 1160, 1161, 1162, 1163, 1164, 1171, 1172, 1173, 1174, 1175, 1176, 1183, 1184
 1185, 1186, 1187, 1188, 1195, 1196, 1197, 1198, 1199, 1200, 1207, 1208, 1209, 1210, 1211, 1212
 1219, 1220, 1221, 1222, 1223, 1224, 1231, 1232, 1233, 1234, 1235, 1236, 1243, 1244, 1245, 1246
 1247, 1248, 1255, 1256, 1257, 1258, 1259, 1260, 1267, 1268, 1269, 1270, 1271, 1272, 1279, 1280
 1281, 1282, 1283, 1284, 1291, 1292, 1293, 1294, 1295, 1296, 1303, 1304, 1305, 1306, 1307, 1308
 1315, 1316, 1317, 1318, 1319, 1320, 1327, 1328, 1329, 1330, 1331, 1332, 1339, 1340, 1341, 1342
 1343, 1344, 1351, 1352, 1353, 1354, 1355, 1356, 1363, 1364, 1365, 1366, 1367, 1368
*Surface, type=ELEMENT, name=Part-Layer+Solid-face-Top
_Part-Layer+Solid-face-Top_S6, S6
_Part-Layer+Solid-face-Top_S4, S4
_Part-Layer+Solid-face-Top_S1, S1
_Part-Layer+Solid-face-Top_S5, S5
*Elset, elset=_Part-Powder-face-Bottom_S1, internal, instance=Part-Powder, generate
   1,  262,    1
*Surface, type=ELEMENT, name=Part-Powder-face-Bottom
_Part-Powder-face-Bottom_S1, S1
*Elset, elset=_Part-Powder-face-Side1_S3, internal, instance=Part-Powder
  34,  38,  40,  48,  52,  54,  61,  65,  74,  77,  96, 103, 105, 110, 117, 119
*Elset, elset=_Part-Powder-face-Side1_S5, internal, instance=Part-Powder
  86,  88,  91,  92,  97, 104, 111, 118, 159, 173
*Elset, elset=_Part-Powder-face-Side1_S6, internal, instance=Part-Powder
 130, 145, 161, 175
*Elset, elset=_Part-Powder-face-Side1_S4, internal, instance=Part-Powder
  98, 112
*Surface, type=ELEMENT, name=Part-Powder-face-Side1
_Part-Powder-face-Side1_S3, S3
_Part-Powder-face-Side1_S5, S5
_Part-Powder-face-Side1_S6, S6
_Part-Powder-face-Side1_S4, S4
*Elset, elset=_Part-Powder-face-Top_S2, internal, instance=Part-Powder, generate
   1,  262,    1
*Surface, type=ELEMENT, name=Part-Powder-face-Top
_Part-Powder-face-Top_S2, S2
*Elset, elset=_Part-Sub-face-Bottom_S5, internal, instance=Part-Sub
  11,  12,  13,  14,  15,  16,  17,  18,  19,  20,  31,  32,  33,  34,  35,  36
  37,  38,  39,  40,  51,  52,  53,  54,  55,  56,  57,  58,  59,  60,  71,  72
  73,  74,  75,  76,  77,  78,  79,  80,  91,  92,  93,  94,  95,  96,  97,  98
  99, 100, 111, 112, 113, 114, 115, 116, 117, 118, 119, 120, 131, 132, 133, 134
 135, 136, 137, 138, 139, 140, 151, 152, 153, 154, 155, 156, 157, 158, 159, 160
 171, 172, 173, 174, 175, 176, 177, 178, 179, 180, 191, 192, 193, 194, 195, 196
 197, 198, 199, 200
*Surface, type=ELEMENT, name=Part-Sub-face-Bottom
_Part-Sub-face-Bottom_S5, S5
*Elset, elset=_Part-Sub-face-Top_S3, internal, instance=Part-Sub
   1,   2,   3,   4,   5,   6,   7,   8,   9,  10,  21,  22,  23,  24,  25,  26
  27,  28,  29,  30,  41,  42,  43,  44,  45,  46,  47,  48,  49,  50,  61,  62
  63,  64,  65,  66,  67,  68,  69,  70,  81,  82,  83,  84,  85,  86,  87,  88
  89,  90, 101, 102, 103, 104, 105, 106, 107, 108, 109, 110, 121, 122, 123, 124
 125, 126, 127, 128, 129, 130, 141, 142, 143, 144, 145, 146, 147, 148, 149, 150
 161, 162, 163, 164, 165, 166, 167, 168, 169, 170, 181, 182, 183, 184, 185, 186
 187, 188, 189, 190
*Surface, type=ELEMENT, name=Part-Sub-face-Top
_Part-Sub-face-Top_S3, S3
** Constraint: Constraint-SubTop-PowBot
*Tie, name=Constraint-SubTop-PowBot, adjust=yes
Part-Powder-face-Bottom, Part-Sub-face-Top
** Constraint: Constraint-SubTop-SolBot
*Tie, name=Constraint-SubTop-SolBot, adjust=yes
Part-Layer+Solid-face-Bottom, Part-Sub-face-Top
*End Assembly
** 
** MATERIALS
** 
*Material, name=SS316L
*Conductivity, dependencies=1
 0.174828,100.,  0.
 0.212441,200.,  0.
 0.184826,300.,  0.
 0.209005,400.,  0.
 0.233117,500.,  0.
  12.1772,100.,  1.
  14.2936,200.,  1.
  16.0707,300.,  1.
  17.1011,400.,  1.
  17.4675,500.,  1.
*Density, dependencies=1
 4.1593e-09,100.,  0.
 4.1379e-09,200.,  0.
 4.1165e-09,300.,  0.
 4.0952e-09,400.,  0.
 4.0738e-09,500.,  0.
 7.5549e-09,100.,  1.
 7.5128e-09,200.,  1.
 7.4708e-09,300.,  1.
 7.4287e-09,400.,  1.
 7.3866e-09,500.,  1.
*Depvar
      4,
*Specific Heat, dependencies=1
 4.383e+08,100.,  0.
 4.848e+08,200.,  0.
 5.276e+08,300.,  0.
  5.59e+08,400.,  0.
 6.408e+08,500.,  0.
  4.52e+08,100.,  1.
  5.17e+08,200.,  1.
  5.57e+08,300.,  1.
  5.93e+08,400.,  1.
 6.155e+08,500.,  1.
*User Defined Field
*Material, name=SS316L-Powder
*Conductivity
 0.174828,100.
 0.212441,200.
 0.184826,300.
 0.209005,400.
 0.233117,500.
*Density
 4.1593e-09,100.
 4.1379e-09,200.
 4.1165e-09,300.
 4.0952e-09,400.
 4.0738e-09,500.
*Depvar
      4,
*Specific Heat
 4.383e+08,100.
 4.848e+08,200.
 5.276e+08,300.
  5.59e+08,400.
 6.408e+08,500.
*User Defined Field
*Material, name=SS316L-Solid-AsBuilt
*Conductivity
 12.1772,100.
 14.2936,200.
 16.0707,300.
 17.1011,400.
 17.4675,500.
*Density
 7.5549e-09,100.
 7.5128e-09,200.
 7.4708e-09,300.
 7.4287e-09,400.
 7.3866e-09,500.
*Depvar
      4,
*Specific Heat
  4.52e+08,100.
  5.17e+08,200.
  5.57e+08,300.
  5.93e+08,400.
 6.155e+08,500.
*User Defined Field
** 
** INTERACTION PROPERTIES
** 
*Surface Interaction, name=P-S-Contact
1.,
*Gap Conductance
10000.,   0.
    0., 0.01
*Surface Interaction, name=Perfect-Contact
1.,
*Gap Conductance
 1e+10,  0.
    0., 0.1
** 
** PREDEFINED FIELDS
** 
** Name: Predefined Field-1   Type: Temperature
*Initial Conditions, type=TEMPERATURE
Set-All, 200.
** 
** INTERACTIONS
** 
** Interaction: Int-PowSol-Inside
*Contact Pair, interaction=P-S-Contact, type=SURFACE TO SURFACE
Part-Layer+Solid-face-Side1, Part-Powder-face-Side1
** ----------------------------------------------------------------
** 
** STEP: Step-1
** 
*Step, name=Step-1, nlgeom=NO, inc=1000000
*Heat Transfer, end=PERIOD, deltmx=1e+06
1e-06, 0.00555556, 1e-11, 0.0004, 
** 
** BOUNDARY CONDITIONS
** 
** Name: BC-1 Type: Temperature
*Boundary
Part-Sub-face-Bottom, 11, 11, 200.
** 
** LOADS
** 
** Name: Load-1   Type: Surface heat flux
*Dsflux
Part-Layer+Solid-face-Top, SNU, 1.
** 
** INTERACTIONS
** 
** Interaction: Top_Surf_FilmCondi
*Sfilm
Part-Layer+Solid-face-Top, F, 200., 0.015
** 
** CONTROLS
** 
*Controls, reset
*Controls, parameters=time incrementation
, , , , , , , 20, , , 
** 
** OUTPUT REQUESTS
** 
*Restart, write, frequency=50
** 
** FIELD OUTPUT: F-Output-1
** 
*Output, field
*Node Output
NT, 
*Element Output, directions=YES
HFL, SDV
*Output, history, frequency=5
*End Step
